*SPEF "ieee 1481-1999"
*DESIGN "wishbone_nn"
*DATE "11:11:11 Fri 11 11, 1111"
*VENDOR "OpenRCX"
*PROGRAM "Parallel Extraction"
*VERSION "1.0"
*DESIGN_FLOW "NAME_SCOPE LOCAL" "PIN_CAP NONE"
*DIVIDER /
*DELIMITER :
*BUS_DELIMITER []
*T_UNIT 1 NS
*C_UNIT 1 PF
*R_UNIT 1 OHM
*L_UNIT 1 HENRY

*NAME_MAP
*3 wb_clk_i
*4 wb_rst_i
*5 wbs_ack_o
*6 wbs_adr_i[0]
*7 wbs_adr_i[10]
*8 wbs_adr_i[11]
*9 wbs_adr_i[12]
*10 wbs_adr_i[13]
*11 wbs_adr_i[14]
*12 wbs_adr_i[15]
*13 wbs_adr_i[16]
*14 wbs_adr_i[17]
*15 wbs_adr_i[18]
*16 wbs_adr_i[19]
*17 wbs_adr_i[1]
*18 wbs_adr_i[20]
*19 wbs_adr_i[21]
*20 wbs_adr_i[22]
*21 wbs_adr_i[23]
*22 wbs_adr_i[24]
*23 wbs_adr_i[25]
*24 wbs_adr_i[26]
*25 wbs_adr_i[27]
*26 wbs_adr_i[28]
*27 wbs_adr_i[29]
*28 wbs_adr_i[2]
*29 wbs_adr_i[30]
*30 wbs_adr_i[31]
*31 wbs_adr_i[3]
*32 wbs_adr_i[4]
*33 wbs_adr_i[5]
*34 wbs_adr_i[6]
*35 wbs_adr_i[7]
*36 wbs_adr_i[8]
*37 wbs_adr_i[9]
*38 wbs_cyc_i
*39 wbs_dat_i[0]
*40 wbs_dat_i[10]
*41 wbs_dat_i[11]
*42 wbs_dat_i[12]
*43 wbs_dat_i[13]
*44 wbs_dat_i[14]
*45 wbs_dat_i[15]
*46 wbs_dat_i[16]
*47 wbs_dat_i[17]
*48 wbs_dat_i[18]
*49 wbs_dat_i[19]
*50 wbs_dat_i[1]
*51 wbs_dat_i[20]
*52 wbs_dat_i[21]
*53 wbs_dat_i[22]
*54 wbs_dat_i[23]
*55 wbs_dat_i[24]
*56 wbs_dat_i[25]
*57 wbs_dat_i[26]
*58 wbs_dat_i[27]
*59 wbs_dat_i[28]
*60 wbs_dat_i[29]
*61 wbs_dat_i[2]
*62 wbs_dat_i[30]
*63 wbs_dat_i[31]
*64 wbs_dat_i[3]
*65 wbs_dat_i[4]
*66 wbs_dat_i[5]
*67 wbs_dat_i[6]
*68 wbs_dat_i[7]
*69 wbs_dat_i[8]
*70 wbs_dat_i[9]
*71 net57
*72 net63
*73 net64
*74 net65
*75 net40
*76 net66
*77 net67
*78 net41
*79 net42
*80 net43
*81 net44
*82 net36
*83 net45
*84 net46
*85 net47
*86 net48
*87 net49
*88 net50
*89 net51
*90 net52
*91 net53
*92 net54
*93 net58
*94 net55
*95 net56
*96 net59
*97 net37
*98 net60
*99 net38
*100 net61
*101 net39
*102 net62
*103 wbs_sel_i[0]
*104 wbs_sel_i[1]
*105 wbs_sel_i[2]
*106 wbs_sel_i[3]
*107 wbs_stb_i
*108 wbs_we_i
*109 _00_
*110 _01_
*111 _02_
*112 _03_
*113 _04_
*114 _05_
*115 _06_
*116 _07_
*117 _08_
*118 _09_
*119 _10_
*120 net1
*121 net10
*122 net11
*123 net12
*124 net13
*125 net14
*126 net15
*127 net16
*128 net17
*129 net18
*130 net19
*131 net2
*132 net20
*133 net21
*134 net22
*135 net23
*136 net24
*137 net25
*138 net26
*139 net27
*140 net28
*141 net29
*142 net3
*143 net30
*144 net31
*145 net32
*146 net33
*147 net34
*148 net35
*149 net4
*150 net5
*151 net6
*152 net7
*153 net8
*154 net9
*155 FILLER_0_0_103
*156 FILLER_0_0_107
*157 FILLER_0_0_111
*158 FILLER_0_0_113
*159 FILLER_0_0_119
*160 FILLER_0_0_123
*161 FILLER_0_0_127
*162 FILLER_0_0_131
*163 FILLER_0_0_135
*164 FILLER_0_0_139
*165 FILLER_0_0_147
*166 FILLER_0_0_151
*167 FILLER_0_0_155
*168 FILLER_0_0_159
*169 FILLER_0_0_163
*170 FILLER_0_0_167
*171 FILLER_0_0_172
*172 FILLER_0_0_179
*173 FILLER_0_0_183
*174 FILLER_0_0_187
*175 FILLER_0_0_191
*176 FILLER_0_0_195
*177 FILLER_0_0_197
*178 FILLER_0_0_203
*179 FILLER_0_0_207
*180 FILLER_0_0_211
*181 FILLER_0_0_215
*182 FILLER_0_0_219
*183 FILLER_0_0_223
*184 FILLER_0_0_23
*185 FILLER_0_0_231
*186 FILLER_0_0_235
*187 FILLER_0_0_239
*188 FILLER_0_0_243
*189 FILLER_0_0_247
*190 FILLER_0_0_251
*191 FILLER_0_0_256
*192 FILLER_0_0_263
*193 FILLER_0_0_267
*194 FILLER_0_0_27
*195 FILLER_0_0_271
*196 FILLER_0_0_275
*197 FILLER_0_0_279
*198 FILLER_0_0_281
*199 FILLER_0_0_287
*200 FILLER_0_0_291
*201 FILLER_0_0_295
*202 FILLER_0_0_299
*203 FILLER_0_0_3
*204 FILLER_0_0_303
*205 FILLER_0_0_307
*206 FILLER_0_0_315
*207 FILLER_0_0_319
*208 FILLER_0_0_32
*209 FILLER_0_0_323
*210 FILLER_0_0_327
*211 FILLER_0_0_331
*212 FILLER_0_0_335
*213 FILLER_0_0_340
*214 FILLER_0_0_347
*215 FILLER_0_0_351
*216 FILLER_0_0_355
*217 FILLER_0_0_359
*218 FILLER_0_0_363
*219 FILLER_0_0_365
*220 FILLER_0_0_371
*221 FILLER_0_0_375
*222 FILLER_0_0_379
*223 FILLER_0_0_383
*224 FILLER_0_0_387
*225 FILLER_0_0_39
*226 FILLER_0_0_391
*227 FILLER_0_0_399
*228 FILLER_0_0_43
*229 FILLER_0_0_47
*230 FILLER_0_0_51
*231 FILLER_0_0_55
*232 FILLER_0_0_57
*233 FILLER_0_0_63
*234 FILLER_0_0_67
*235 FILLER_0_0_71
*236 FILLER_0_0_75
*237 FILLER_0_0_79
*238 FILLER_0_0_83
*239 FILLER_0_0_88
*240 FILLER_0_0_95
*241 FILLER_0_0_99
*242 FILLER_0_10_109
*243 FILLER_0_10_121
*244 FILLER_0_10_133
*245 FILLER_0_10_139
*246 FILLER_0_10_141
*247 FILLER_0_10_15
*248 FILLER_0_10_153
*249 FILLER_0_10_165
*250 FILLER_0_10_177
*251 FILLER_0_10_189
*252 FILLER_0_10_195
*253 FILLER_0_10_197
*254 FILLER_0_10_209
*255 FILLER_0_10_221
*256 FILLER_0_10_233
*257 FILLER_0_10_245
*258 FILLER_0_10_251
*259 FILLER_0_10_253
*260 FILLER_0_10_265
*261 FILLER_0_10_27
*262 FILLER_0_10_277
*263 FILLER_0_10_289
*264 FILLER_0_10_29
*265 FILLER_0_10_3
*266 FILLER_0_10_301
*267 FILLER_0_10_307
*268 FILLER_0_10_309
*269 FILLER_0_10_321
*270 FILLER_0_10_333
*271 FILLER_0_10_345
*272 FILLER_0_10_357
*273 FILLER_0_10_363
*274 FILLER_0_10_365
*275 FILLER_0_10_377
*276 FILLER_0_10_389
*277 FILLER_0_10_401
*278 FILLER_0_10_41
*279 FILLER_0_10_53
*280 FILLER_0_10_65
*281 FILLER_0_10_77
*282 FILLER_0_10_83
*283 FILLER_0_10_85
*284 FILLER_0_10_97
*285 FILLER_0_11_105
*286 FILLER_0_11_111
*287 FILLER_0_11_113
*288 FILLER_0_11_125
*289 FILLER_0_11_137
*290 FILLER_0_11_149
*291 FILLER_0_11_15
*292 FILLER_0_11_161
*293 FILLER_0_11_167
*294 FILLER_0_11_169
*295 FILLER_0_11_181
*296 FILLER_0_11_193
*297 FILLER_0_11_205
*298 FILLER_0_11_217
*299 FILLER_0_11_223
*300 FILLER_0_11_225
*301 FILLER_0_11_237
*302 FILLER_0_11_249
*303 FILLER_0_11_261
*304 FILLER_0_11_27
*305 FILLER_0_11_273
*306 FILLER_0_11_279
*307 FILLER_0_11_281
*308 FILLER_0_11_293
*309 FILLER_0_11_3
*310 FILLER_0_11_305
*311 FILLER_0_11_317
*312 FILLER_0_11_329
*313 FILLER_0_11_335
*314 FILLER_0_11_337
*315 FILLER_0_11_349
*316 FILLER_0_11_361
*317 FILLER_0_11_373
*318 FILLER_0_11_385
*319 FILLER_0_11_39
*320 FILLER_0_11_391
*321 FILLER_0_11_393
*322 FILLER_0_11_405
*323 FILLER_0_11_51
*324 FILLER_0_11_55
*325 FILLER_0_11_57
*326 FILLER_0_11_69
*327 FILLER_0_11_81
*328 FILLER_0_11_93
*329 FILLER_0_12_109
*330 FILLER_0_12_121
*331 FILLER_0_12_133
*332 FILLER_0_12_139
*333 FILLER_0_12_141
*334 FILLER_0_12_15
*335 FILLER_0_12_153
*336 FILLER_0_12_165
*337 FILLER_0_12_177
*338 FILLER_0_12_189
*339 FILLER_0_12_195
*340 FILLER_0_12_197
*341 FILLER_0_12_209
*342 FILLER_0_12_221
*343 FILLER_0_12_233
*344 FILLER_0_12_245
*345 FILLER_0_12_251
*346 FILLER_0_12_253
*347 FILLER_0_12_265
*348 FILLER_0_12_27
*349 FILLER_0_12_277
*350 FILLER_0_12_289
*351 FILLER_0_12_29
*352 FILLER_0_12_3
*353 FILLER_0_12_301
*354 FILLER_0_12_307
*355 FILLER_0_12_309
*356 FILLER_0_12_321
*357 FILLER_0_12_333
*358 FILLER_0_12_345
*359 FILLER_0_12_357
*360 FILLER_0_12_363
*361 FILLER_0_12_365
*362 FILLER_0_12_377
*363 FILLER_0_12_389
*364 FILLER_0_12_401
*365 FILLER_0_12_41
*366 FILLER_0_12_53
*367 FILLER_0_12_65
*368 FILLER_0_12_77
*369 FILLER_0_12_83
*370 FILLER_0_12_85
*371 FILLER_0_12_97
*372 FILLER_0_13_105
*373 FILLER_0_13_111
*374 FILLER_0_13_113
*375 FILLER_0_13_125
*376 FILLER_0_13_137
*377 FILLER_0_13_149
*378 FILLER_0_13_15
*379 FILLER_0_13_161
*380 FILLER_0_13_167
*381 FILLER_0_13_169
*382 FILLER_0_13_181
*383 FILLER_0_13_193
*384 FILLER_0_13_205
*385 FILLER_0_13_217
*386 FILLER_0_13_223
*387 FILLER_0_13_225
*388 FILLER_0_13_237
*389 FILLER_0_13_249
*390 FILLER_0_13_261
*391 FILLER_0_13_27
*392 FILLER_0_13_273
*393 FILLER_0_13_279
*394 FILLER_0_13_281
*395 FILLER_0_13_293
*396 FILLER_0_13_3
*397 FILLER_0_13_305
*398 FILLER_0_13_317
*399 FILLER_0_13_329
*400 FILLER_0_13_335
*401 FILLER_0_13_337
*402 FILLER_0_13_349
*403 FILLER_0_13_361
*404 FILLER_0_13_373
*405 FILLER_0_13_385
*406 FILLER_0_13_39
*407 FILLER_0_13_391
*408 FILLER_0_13_393
*409 FILLER_0_13_405
*410 FILLER_0_13_51
*411 FILLER_0_13_55
*412 FILLER_0_13_57
*413 FILLER_0_13_69
*414 FILLER_0_13_81
*415 FILLER_0_13_93
*416 FILLER_0_14_109
*417 FILLER_0_14_121
*418 FILLER_0_14_133
*419 FILLER_0_14_139
*420 FILLER_0_14_141
*421 FILLER_0_14_15
*422 FILLER_0_14_153
*423 FILLER_0_14_165
*424 FILLER_0_14_177
*425 FILLER_0_14_189
*426 FILLER_0_14_195
*427 FILLER_0_14_197
*428 FILLER_0_14_209
*429 FILLER_0_14_221
*430 FILLER_0_14_233
*431 FILLER_0_14_245
*432 FILLER_0_14_251
*433 FILLER_0_14_253
*434 FILLER_0_14_265
*435 FILLER_0_14_27
*436 FILLER_0_14_277
*437 FILLER_0_14_289
*438 FILLER_0_14_29
*439 FILLER_0_14_3
*440 FILLER_0_14_301
*441 FILLER_0_14_307
*442 FILLER_0_14_309
*443 FILLER_0_14_321
*444 FILLER_0_14_333
*445 FILLER_0_14_345
*446 FILLER_0_14_357
*447 FILLER_0_14_363
*448 FILLER_0_14_365
*449 FILLER_0_14_377
*450 FILLER_0_14_389
*451 FILLER_0_14_401
*452 FILLER_0_14_41
*453 FILLER_0_14_53
*454 FILLER_0_14_65
*455 FILLER_0_14_77
*456 FILLER_0_14_83
*457 FILLER_0_14_85
*458 FILLER_0_14_97
*459 FILLER_0_15_105
*460 FILLER_0_15_111
*461 FILLER_0_15_113
*462 FILLER_0_15_125
*463 FILLER_0_15_137
*464 FILLER_0_15_149
*465 FILLER_0_15_15
*466 FILLER_0_15_161
*467 FILLER_0_15_167
*468 FILLER_0_15_169
*469 FILLER_0_15_181
*470 FILLER_0_15_193
*471 FILLER_0_15_205
*472 FILLER_0_15_217
*473 FILLER_0_15_223
*474 FILLER_0_15_225
*475 FILLER_0_15_237
*476 FILLER_0_15_249
*477 FILLER_0_15_261
*478 FILLER_0_15_27
*479 FILLER_0_15_273
*480 FILLER_0_15_279
*481 FILLER_0_15_281
*482 FILLER_0_15_293
*483 FILLER_0_15_3
*484 FILLER_0_15_305
*485 FILLER_0_15_317
*486 FILLER_0_15_329
*487 FILLER_0_15_335
*488 FILLER_0_15_337
*489 FILLER_0_15_349
*490 FILLER_0_15_361
*491 FILLER_0_15_373
*492 FILLER_0_15_385
*493 FILLER_0_15_39
*494 FILLER_0_15_391
*495 FILLER_0_15_393
*496 FILLER_0_15_405
*497 FILLER_0_15_51
*498 FILLER_0_15_55
*499 FILLER_0_15_57
*500 FILLER_0_15_69
*501 FILLER_0_15_81
*502 FILLER_0_15_93
*503 FILLER_0_16_109
*504 FILLER_0_16_121
*505 FILLER_0_16_133
*506 FILLER_0_16_139
*507 FILLER_0_16_141
*508 FILLER_0_16_15
*509 FILLER_0_16_153
*510 FILLER_0_16_165
*511 FILLER_0_16_177
*512 FILLER_0_16_189
*513 FILLER_0_16_195
*514 FILLER_0_16_197
*515 FILLER_0_16_209
*516 FILLER_0_16_221
*517 FILLER_0_16_233
*518 FILLER_0_16_245
*519 FILLER_0_16_251
*520 FILLER_0_16_253
*521 FILLER_0_16_265
*522 FILLER_0_16_27
*523 FILLER_0_16_277
*524 FILLER_0_16_289
*525 FILLER_0_16_29
*526 FILLER_0_16_3
*527 FILLER_0_16_301
*528 FILLER_0_16_307
*529 FILLER_0_16_309
*530 FILLER_0_16_321
*531 FILLER_0_16_333
*532 FILLER_0_16_345
*533 FILLER_0_16_357
*534 FILLER_0_16_363
*535 FILLER_0_16_365
*536 FILLER_0_16_377
*537 FILLER_0_16_389
*538 FILLER_0_16_401
*539 FILLER_0_16_41
*540 FILLER_0_16_53
*541 FILLER_0_16_65
*542 FILLER_0_16_77
*543 FILLER_0_16_83
*544 FILLER_0_16_85
*545 FILLER_0_16_97
*546 FILLER_0_17_105
*547 FILLER_0_17_111
*548 FILLER_0_17_113
*549 FILLER_0_17_125
*550 FILLER_0_17_137
*551 FILLER_0_17_149
*552 FILLER_0_17_15
*553 FILLER_0_17_161
*554 FILLER_0_17_167
*555 FILLER_0_17_169
*556 FILLER_0_17_181
*557 FILLER_0_17_193
*558 FILLER_0_17_205
*559 FILLER_0_17_217
*560 FILLER_0_17_223
*561 FILLER_0_17_225
*562 FILLER_0_17_237
*563 FILLER_0_17_249
*564 FILLER_0_17_261
*565 FILLER_0_17_27
*566 FILLER_0_17_273
*567 FILLER_0_17_279
*568 FILLER_0_17_281
*569 FILLER_0_17_293
*570 FILLER_0_17_3
*571 FILLER_0_17_305
*572 FILLER_0_17_317
*573 FILLER_0_17_329
*574 FILLER_0_17_335
*575 FILLER_0_17_337
*576 FILLER_0_17_349
*577 FILLER_0_17_361
*578 FILLER_0_17_373
*579 FILLER_0_17_385
*580 FILLER_0_17_39
*581 FILLER_0_17_391
*582 FILLER_0_17_393
*583 FILLER_0_17_405
*584 FILLER_0_17_51
*585 FILLER_0_17_55
*586 FILLER_0_17_57
*587 FILLER_0_17_69
*588 FILLER_0_17_81
*589 FILLER_0_17_93
*590 FILLER_0_18_109
*591 FILLER_0_18_121
*592 FILLER_0_18_133
*593 FILLER_0_18_139
*594 FILLER_0_18_141
*595 FILLER_0_18_15
*596 FILLER_0_18_153
*597 FILLER_0_18_165
*598 FILLER_0_18_177
*599 FILLER_0_18_189
*600 FILLER_0_18_195
*601 FILLER_0_18_197
*602 FILLER_0_18_209
*603 FILLER_0_18_221
*604 FILLER_0_18_233
*605 FILLER_0_18_245
*606 FILLER_0_18_251
*607 FILLER_0_18_253
*608 FILLER_0_18_265
*609 FILLER_0_18_27
*610 FILLER_0_18_277
*611 FILLER_0_18_289
*612 FILLER_0_18_29
*613 FILLER_0_18_3
*614 FILLER_0_18_301
*615 FILLER_0_18_307
*616 FILLER_0_18_309
*617 FILLER_0_18_321
*618 FILLER_0_18_333
*619 FILLER_0_18_345
*620 FILLER_0_18_357
*621 FILLER_0_18_363
*622 FILLER_0_18_365
*623 FILLER_0_18_377
*624 FILLER_0_18_389
*625 FILLER_0_18_401
*626 FILLER_0_18_41
*627 FILLER_0_18_53
*628 FILLER_0_18_65
*629 FILLER_0_18_77
*630 FILLER_0_18_83
*631 FILLER_0_18_85
*632 FILLER_0_18_97
*633 FILLER_0_19_105
*634 FILLER_0_19_111
*635 FILLER_0_19_113
*636 FILLER_0_19_125
*637 FILLER_0_19_137
*638 FILLER_0_19_149
*639 FILLER_0_19_15
*640 FILLER_0_19_161
*641 FILLER_0_19_167
*642 FILLER_0_19_169
*643 FILLER_0_19_181
*644 FILLER_0_19_193
*645 FILLER_0_19_205
*646 FILLER_0_19_217
*647 FILLER_0_19_223
*648 FILLER_0_19_225
*649 FILLER_0_19_237
*650 FILLER_0_19_249
*651 FILLER_0_19_261
*652 FILLER_0_19_27
*653 FILLER_0_19_273
*654 FILLER_0_19_279
*655 FILLER_0_19_281
*656 FILLER_0_19_293
*657 FILLER_0_19_3
*658 FILLER_0_19_305
*659 FILLER_0_19_317
*660 FILLER_0_19_329
*661 FILLER_0_19_335
*662 FILLER_0_19_337
*663 FILLER_0_19_349
*664 FILLER_0_19_361
*665 FILLER_0_19_373
*666 FILLER_0_19_385
*667 FILLER_0_19_39
*668 FILLER_0_19_391
*669 FILLER_0_19_393
*670 FILLER_0_19_405
*671 FILLER_0_19_51
*672 FILLER_0_19_55
*673 FILLER_0_19_57
*674 FILLER_0_19_69
*675 FILLER_0_19_81
*676 FILLER_0_19_93
*677 FILLER_0_1_104
*678 FILLER_0_1_11
*679 FILLER_0_1_119
*680 FILLER_0_1_131
*681 FILLER_0_1_143
*682 FILLER_0_1_151
*683 FILLER_0_1_166
*684 FILLER_0_1_169
*685 FILLER_0_1_181
*686 FILLER_0_1_195
*687 FILLER_0_1_207
*688 FILLER_0_1_219
*689 FILLER_0_1_223
*690 FILLER_0_1_225
*691 FILLER_0_1_23
*692 FILLER_0_1_231
*693 FILLER_0_1_238
*694 FILLER_0_1_250
*695 FILLER_0_1_262
*696 FILLER_0_1_274
*697 FILLER_0_1_281
*698 FILLER_0_1_293
*699 FILLER_0_1_305
*700 FILLER_0_1_317
*701 FILLER_0_1_335
*702 FILLER_0_1_337
*703 FILLER_0_1_349
*704 FILLER_0_1_35
*705 FILLER_0_1_361
*706 FILLER_0_1_373
*707 FILLER_0_1_384
*708 FILLER_0_1_393
*709 FILLER_0_1_401
*710 FILLER_0_1_47
*711 FILLER_0_1_6
*712 FILLER_0_1_63
*713 FILLER_0_1_75
*714 FILLER_0_1_81
*715 FILLER_0_1_92
*716 FILLER_0_20_109
*717 FILLER_0_20_121
*718 FILLER_0_20_133
*719 FILLER_0_20_139
*720 FILLER_0_20_141
*721 FILLER_0_20_15
*722 FILLER_0_20_153
*723 FILLER_0_20_165
*724 FILLER_0_20_177
*725 FILLER_0_20_189
*726 FILLER_0_20_195
*727 FILLER_0_20_197
*728 FILLER_0_20_209
*729 FILLER_0_20_221
*730 FILLER_0_20_233
*731 FILLER_0_20_245
*732 FILLER_0_20_251
*733 FILLER_0_20_253
*734 FILLER_0_20_265
*735 FILLER_0_20_27
*736 FILLER_0_20_277
*737 FILLER_0_20_289
*738 FILLER_0_20_29
*739 FILLER_0_20_3
*740 FILLER_0_20_301
*741 FILLER_0_20_307
*742 FILLER_0_20_309
*743 FILLER_0_20_321
*744 FILLER_0_20_333
*745 FILLER_0_20_345
*746 FILLER_0_20_357
*747 FILLER_0_20_363
*748 FILLER_0_20_365
*749 FILLER_0_20_377
*750 FILLER_0_20_389
*751 FILLER_0_20_401
*752 FILLER_0_20_41
*753 FILLER_0_20_53
*754 FILLER_0_20_65
*755 FILLER_0_20_77
*756 FILLER_0_20_83
*757 FILLER_0_20_85
*758 FILLER_0_20_97
*759 FILLER_0_21_105
*760 FILLER_0_21_111
*761 FILLER_0_21_113
*762 FILLER_0_21_125
*763 FILLER_0_21_137
*764 FILLER_0_21_149
*765 FILLER_0_21_15
*766 FILLER_0_21_161
*767 FILLER_0_21_167
*768 FILLER_0_21_169
*769 FILLER_0_21_181
*770 FILLER_0_21_193
*771 FILLER_0_21_205
*772 FILLER_0_21_217
*773 FILLER_0_21_223
*774 FILLER_0_21_225
*775 FILLER_0_21_237
*776 FILLER_0_21_249
*777 FILLER_0_21_261
*778 FILLER_0_21_27
*779 FILLER_0_21_273
*780 FILLER_0_21_279
*781 FILLER_0_21_281
*782 FILLER_0_21_293
*783 FILLER_0_21_3
*784 FILLER_0_21_305
*785 FILLER_0_21_317
*786 FILLER_0_21_329
*787 FILLER_0_21_335
*788 FILLER_0_21_337
*789 FILLER_0_21_349
*790 FILLER_0_21_361
*791 FILLER_0_21_373
*792 FILLER_0_21_385
*793 FILLER_0_21_39
*794 FILLER_0_21_391
*795 FILLER_0_21_393
*796 FILLER_0_21_405
*797 FILLER_0_21_51
*798 FILLER_0_21_55
*799 FILLER_0_21_57
*800 FILLER_0_21_69
*801 FILLER_0_21_81
*802 FILLER_0_21_93
*803 FILLER_0_22_109
*804 FILLER_0_22_121
*805 FILLER_0_22_133
*806 FILLER_0_22_139
*807 FILLER_0_22_141
*808 FILLER_0_22_15
*809 FILLER_0_22_153
*810 FILLER_0_22_165
*811 FILLER_0_22_177
*812 FILLER_0_22_189
*813 FILLER_0_22_195
*814 FILLER_0_22_197
*815 FILLER_0_22_209
*816 FILLER_0_22_221
*817 FILLER_0_22_233
*818 FILLER_0_22_245
*819 FILLER_0_22_251
*820 FILLER_0_22_253
*821 FILLER_0_22_265
*822 FILLER_0_22_27
*823 FILLER_0_22_277
*824 FILLER_0_22_289
*825 FILLER_0_22_29
*826 FILLER_0_22_3
*827 FILLER_0_22_301
*828 FILLER_0_22_307
*829 FILLER_0_22_309
*830 FILLER_0_22_321
*831 FILLER_0_22_333
*832 FILLER_0_22_345
*833 FILLER_0_22_357
*834 FILLER_0_22_363
*835 FILLER_0_22_365
*836 FILLER_0_22_377
*837 FILLER_0_22_389
*838 FILLER_0_22_401
*839 FILLER_0_22_41
*840 FILLER_0_22_53
*841 FILLER_0_22_65
*842 FILLER_0_22_77
*843 FILLER_0_22_83
*844 FILLER_0_22_85
*845 FILLER_0_22_97
*846 FILLER_0_23_105
*847 FILLER_0_23_111
*848 FILLER_0_23_113
*849 FILLER_0_23_125
*850 FILLER_0_23_137
*851 FILLER_0_23_149
*852 FILLER_0_23_15
*853 FILLER_0_23_161
*854 FILLER_0_23_167
*855 FILLER_0_23_169
*856 FILLER_0_23_181
*857 FILLER_0_23_193
*858 FILLER_0_23_205
*859 FILLER_0_23_217
*860 FILLER_0_23_223
*861 FILLER_0_23_225
*862 FILLER_0_23_237
*863 FILLER_0_23_249
*864 FILLER_0_23_261
*865 FILLER_0_23_27
*866 FILLER_0_23_273
*867 FILLER_0_23_279
*868 FILLER_0_23_281
*869 FILLER_0_23_293
*870 FILLER_0_23_3
*871 FILLER_0_23_305
*872 FILLER_0_23_317
*873 FILLER_0_23_329
*874 FILLER_0_23_335
*875 FILLER_0_23_337
*876 FILLER_0_23_349
*877 FILLER_0_23_361
*878 FILLER_0_23_373
*879 FILLER_0_23_385
*880 FILLER_0_23_39
*881 FILLER_0_23_391
*882 FILLER_0_23_393
*883 FILLER_0_23_405
*884 FILLER_0_23_51
*885 FILLER_0_23_55
*886 FILLER_0_23_57
*887 FILLER_0_23_69
*888 FILLER_0_23_81
*889 FILLER_0_23_93
*890 FILLER_0_24_109
*891 FILLER_0_24_121
*892 FILLER_0_24_133
*893 FILLER_0_24_139
*894 FILLER_0_24_141
*895 FILLER_0_24_15
*896 FILLER_0_24_153
*897 FILLER_0_24_165
*898 FILLER_0_24_177
*899 FILLER_0_24_189
*900 FILLER_0_24_195
*901 FILLER_0_24_197
*902 FILLER_0_24_209
*903 FILLER_0_24_221
*904 FILLER_0_24_233
*905 FILLER_0_24_245
*906 FILLER_0_24_251
*907 FILLER_0_24_253
*908 FILLER_0_24_265
*909 FILLER_0_24_27
*910 FILLER_0_24_277
*911 FILLER_0_24_289
*912 FILLER_0_24_29
*913 FILLER_0_24_3
*914 FILLER_0_24_301
*915 FILLER_0_24_307
*916 FILLER_0_24_309
*917 FILLER_0_24_321
*918 FILLER_0_24_333
*919 FILLER_0_24_345
*920 FILLER_0_24_357
*921 FILLER_0_24_363
*922 FILLER_0_24_365
*923 FILLER_0_24_377
*924 FILLER_0_24_389
*925 FILLER_0_24_401
*926 FILLER_0_24_41
*927 FILLER_0_24_53
*928 FILLER_0_24_65
*929 FILLER_0_24_77
*930 FILLER_0_24_83
*931 FILLER_0_24_85
*932 FILLER_0_24_97
*933 FILLER_0_25_105
*934 FILLER_0_25_111
*935 FILLER_0_25_113
*936 FILLER_0_25_125
*937 FILLER_0_25_137
*938 FILLER_0_25_149
*939 FILLER_0_25_15
*940 FILLER_0_25_161
*941 FILLER_0_25_167
*942 FILLER_0_25_169
*943 FILLER_0_25_181
*944 FILLER_0_25_193
*945 FILLER_0_25_205
*946 FILLER_0_25_217
*947 FILLER_0_25_223
*948 FILLER_0_25_225
*949 FILLER_0_25_237
*950 FILLER_0_25_249
*951 FILLER_0_25_261
*952 FILLER_0_25_27
*953 FILLER_0_25_273
*954 FILLER_0_25_279
*955 FILLER_0_25_281
*956 FILLER_0_25_293
*957 FILLER_0_25_3
*958 FILLER_0_25_305
*959 FILLER_0_25_317
*960 FILLER_0_25_329
*961 FILLER_0_25_335
*962 FILLER_0_25_337
*963 FILLER_0_25_349
*964 FILLER_0_25_361
*965 FILLER_0_25_373
*966 FILLER_0_25_385
*967 FILLER_0_25_39
*968 FILLER_0_25_391
*969 FILLER_0_25_393
*970 FILLER_0_25_405
*971 FILLER_0_25_51
*972 FILLER_0_25_55
*973 FILLER_0_25_57
*974 FILLER_0_25_69
*975 FILLER_0_25_81
*976 FILLER_0_25_93
*977 FILLER_0_26_109
*978 FILLER_0_26_121
*979 FILLER_0_26_133
*980 FILLER_0_26_139
*981 FILLER_0_26_141
*982 FILLER_0_26_15
*983 FILLER_0_26_153
*984 FILLER_0_26_165
*985 FILLER_0_26_177
*986 FILLER_0_26_189
*987 FILLER_0_26_195
*988 FILLER_0_26_197
*989 FILLER_0_26_209
*990 FILLER_0_26_221
*991 FILLER_0_26_233
*992 FILLER_0_26_245
*993 FILLER_0_26_251
*994 FILLER_0_26_253
*995 FILLER_0_26_265
*996 FILLER_0_26_27
*997 FILLER_0_26_277
*998 FILLER_0_26_289
*999 FILLER_0_26_29
*1000 FILLER_0_26_3
*1001 FILLER_0_26_301
*1002 FILLER_0_26_307
*1003 FILLER_0_26_309
*1004 FILLER_0_26_321
*1005 FILLER_0_26_333
*1006 FILLER_0_26_345
*1007 FILLER_0_26_357
*1008 FILLER_0_26_363
*1009 FILLER_0_26_365
*1010 FILLER_0_26_377
*1011 FILLER_0_26_389
*1012 FILLER_0_26_401
*1013 FILLER_0_26_41
*1014 FILLER_0_26_53
*1015 FILLER_0_26_65
*1016 FILLER_0_26_77
*1017 FILLER_0_26_83
*1018 FILLER_0_26_85
*1019 FILLER_0_26_97
*1020 FILLER_0_27_105
*1021 FILLER_0_27_111
*1022 FILLER_0_27_113
*1023 FILLER_0_27_125
*1024 FILLER_0_27_137
*1025 FILLER_0_27_149
*1026 FILLER_0_27_15
*1027 FILLER_0_27_161
*1028 FILLER_0_27_167
*1029 FILLER_0_27_169
*1030 FILLER_0_27_181
*1031 FILLER_0_27_193
*1032 FILLER_0_27_205
*1033 FILLER_0_27_217
*1034 FILLER_0_27_223
*1035 FILLER_0_27_225
*1036 FILLER_0_27_237
*1037 FILLER_0_27_249
*1038 FILLER_0_27_261
*1039 FILLER_0_27_27
*1040 FILLER_0_27_273
*1041 FILLER_0_27_279
*1042 FILLER_0_27_281
*1043 FILLER_0_27_293
*1044 FILLER_0_27_3
*1045 FILLER_0_27_305
*1046 FILLER_0_27_317
*1047 FILLER_0_27_329
*1048 FILLER_0_27_335
*1049 FILLER_0_27_337
*1050 FILLER_0_27_349
*1051 FILLER_0_27_361
*1052 FILLER_0_27_373
*1053 FILLER_0_27_385
*1054 FILLER_0_27_39
*1055 FILLER_0_27_391
*1056 FILLER_0_27_393
*1057 FILLER_0_27_405
*1058 FILLER_0_27_51
*1059 FILLER_0_27_55
*1060 FILLER_0_27_57
*1061 FILLER_0_27_69
*1062 FILLER_0_27_81
*1063 FILLER_0_27_93
*1064 FILLER_0_28_109
*1065 FILLER_0_28_121
*1066 FILLER_0_28_133
*1067 FILLER_0_28_139
*1068 FILLER_0_28_141
*1069 FILLER_0_28_15
*1070 FILLER_0_28_153
*1071 FILLER_0_28_165
*1072 FILLER_0_28_177
*1073 FILLER_0_28_189
*1074 FILLER_0_28_195
*1075 FILLER_0_28_197
*1076 FILLER_0_28_209
*1077 FILLER_0_28_221
*1078 FILLER_0_28_233
*1079 FILLER_0_28_245
*1080 FILLER_0_28_251
*1081 FILLER_0_28_253
*1082 FILLER_0_28_265
*1083 FILLER_0_28_27
*1084 FILLER_0_28_277
*1085 FILLER_0_28_289
*1086 FILLER_0_28_29
*1087 FILLER_0_28_3
*1088 FILLER_0_28_301
*1089 FILLER_0_28_307
*1090 FILLER_0_28_309
*1091 FILLER_0_28_321
*1092 FILLER_0_28_333
*1093 FILLER_0_28_345
*1094 FILLER_0_28_357
*1095 FILLER_0_28_363
*1096 FILLER_0_28_365
*1097 FILLER_0_28_377
*1098 FILLER_0_28_389
*1099 FILLER_0_28_401
*1100 FILLER_0_28_41
*1101 FILLER_0_28_53
*1102 FILLER_0_28_65
*1103 FILLER_0_28_77
*1104 FILLER_0_28_83
*1105 FILLER_0_28_85
*1106 FILLER_0_28_97
*1107 FILLER_0_29_105
*1108 FILLER_0_29_111
*1109 FILLER_0_29_113
*1110 FILLER_0_29_125
*1111 FILLER_0_29_137
*1112 FILLER_0_29_149
*1113 FILLER_0_29_15
*1114 FILLER_0_29_161
*1115 FILLER_0_29_167
*1116 FILLER_0_29_169
*1117 FILLER_0_29_181
*1118 FILLER_0_29_193
*1119 FILLER_0_29_205
*1120 FILLER_0_29_217
*1121 FILLER_0_29_223
*1122 FILLER_0_29_225
*1123 FILLER_0_29_237
*1124 FILLER_0_29_249
*1125 FILLER_0_29_261
*1126 FILLER_0_29_27
*1127 FILLER_0_29_273
*1128 FILLER_0_29_279
*1129 FILLER_0_29_281
*1130 FILLER_0_29_293
*1131 FILLER_0_29_3
*1132 FILLER_0_29_305
*1133 FILLER_0_29_317
*1134 FILLER_0_29_329
*1135 FILLER_0_29_335
*1136 FILLER_0_29_337
*1137 FILLER_0_29_349
*1138 FILLER_0_29_361
*1139 FILLER_0_29_373
*1140 FILLER_0_29_385
*1141 FILLER_0_29_39
*1142 FILLER_0_29_391
*1143 FILLER_0_29_393
*1144 FILLER_0_29_405
*1145 FILLER_0_29_51
*1146 FILLER_0_29_55
*1147 FILLER_0_29_57
*1148 FILLER_0_29_69
*1149 FILLER_0_29_81
*1150 FILLER_0_29_93
*1151 FILLER_0_2_109
*1152 FILLER_0_2_121
*1153 FILLER_0_2_133
*1154 FILLER_0_2_139
*1155 FILLER_0_2_141
*1156 FILLER_0_2_15
*1157 FILLER_0_2_153
*1158 FILLER_0_2_165
*1159 FILLER_0_2_177
*1160 FILLER_0_2_189
*1161 FILLER_0_2_195
*1162 FILLER_0_2_197
*1163 FILLER_0_2_209
*1164 FILLER_0_2_221
*1165 FILLER_0_2_233
*1166 FILLER_0_2_245
*1167 FILLER_0_2_251
*1168 FILLER_0_2_253
*1169 FILLER_0_2_265
*1170 FILLER_0_2_27
*1171 FILLER_0_2_277
*1172 FILLER_0_2_289
*1173 FILLER_0_2_29
*1174 FILLER_0_2_3
*1175 FILLER_0_2_301
*1176 FILLER_0_2_307
*1177 FILLER_0_2_309
*1178 FILLER_0_2_321
*1179 FILLER_0_2_333
*1180 FILLER_0_2_345
*1181 FILLER_0_2_357
*1182 FILLER_0_2_363
*1183 FILLER_0_2_365
*1184 FILLER_0_2_377
*1185 FILLER_0_2_389
*1186 FILLER_0_2_401
*1187 FILLER_0_2_41
*1188 FILLER_0_2_53
*1189 FILLER_0_2_65
*1190 FILLER_0_2_77
*1191 FILLER_0_2_83
*1192 FILLER_0_2_85
*1193 FILLER_0_2_97
*1194 FILLER_0_30_109
*1195 FILLER_0_30_121
*1196 FILLER_0_30_133
*1197 FILLER_0_30_139
*1198 FILLER_0_30_141
*1199 FILLER_0_30_15
*1200 FILLER_0_30_153
*1201 FILLER_0_30_165
*1202 FILLER_0_30_177
*1203 FILLER_0_30_189
*1204 FILLER_0_30_195
*1205 FILLER_0_30_197
*1206 FILLER_0_30_209
*1207 FILLER_0_30_221
*1208 FILLER_0_30_233
*1209 FILLER_0_30_245
*1210 FILLER_0_30_251
*1211 FILLER_0_30_253
*1212 FILLER_0_30_265
*1213 FILLER_0_30_27
*1214 FILLER_0_30_277
*1215 FILLER_0_30_289
*1216 FILLER_0_30_29
*1217 FILLER_0_30_3
*1218 FILLER_0_30_301
*1219 FILLER_0_30_307
*1220 FILLER_0_30_309
*1221 FILLER_0_30_321
*1222 FILLER_0_30_333
*1223 FILLER_0_30_345
*1224 FILLER_0_30_357
*1225 FILLER_0_30_363
*1226 FILLER_0_30_365
*1227 FILLER_0_30_377
*1228 FILLER_0_30_389
*1229 FILLER_0_30_401
*1230 FILLER_0_30_41
*1231 FILLER_0_30_53
*1232 FILLER_0_30_65
*1233 FILLER_0_30_77
*1234 FILLER_0_30_83
*1235 FILLER_0_30_85
*1236 FILLER_0_30_97
*1237 FILLER_0_31_105
*1238 FILLER_0_31_111
*1239 FILLER_0_31_113
*1240 FILLER_0_31_125
*1241 FILLER_0_31_137
*1242 FILLER_0_31_149
*1243 FILLER_0_31_15
*1244 FILLER_0_31_161
*1245 FILLER_0_31_167
*1246 FILLER_0_31_169
*1247 FILLER_0_31_181
*1248 FILLER_0_31_193
*1249 FILLER_0_31_205
*1250 FILLER_0_31_217
*1251 FILLER_0_31_223
*1252 FILLER_0_31_225
*1253 FILLER_0_31_237
*1254 FILLER_0_31_249
*1255 FILLER_0_31_261
*1256 FILLER_0_31_27
*1257 FILLER_0_31_273
*1258 FILLER_0_31_279
*1259 FILLER_0_31_281
*1260 FILLER_0_31_293
*1261 FILLER_0_31_3
*1262 FILLER_0_31_305
*1263 FILLER_0_31_317
*1264 FILLER_0_31_329
*1265 FILLER_0_31_335
*1266 FILLER_0_31_337
*1267 FILLER_0_31_349
*1268 FILLER_0_31_361
*1269 FILLER_0_31_373
*1270 FILLER_0_31_385
*1271 FILLER_0_31_39
*1272 FILLER_0_31_391
*1273 FILLER_0_31_393
*1274 FILLER_0_31_405
*1275 FILLER_0_31_51
*1276 FILLER_0_31_55
*1277 FILLER_0_31_57
*1278 FILLER_0_31_69
*1279 FILLER_0_31_81
*1280 FILLER_0_31_93
*1281 FILLER_0_32_109
*1282 FILLER_0_32_121
*1283 FILLER_0_32_133
*1284 FILLER_0_32_139
*1285 FILLER_0_32_141
*1286 FILLER_0_32_15
*1287 FILLER_0_32_153
*1288 FILLER_0_32_165
*1289 FILLER_0_32_177
*1290 FILLER_0_32_189
*1291 FILLER_0_32_195
*1292 FILLER_0_32_197
*1293 FILLER_0_32_209
*1294 FILLER_0_32_221
*1295 FILLER_0_32_233
*1296 FILLER_0_32_245
*1297 FILLER_0_32_251
*1298 FILLER_0_32_253
*1299 FILLER_0_32_265
*1300 FILLER_0_32_27
*1301 FILLER_0_32_277
*1302 FILLER_0_32_289
*1303 FILLER_0_32_29
*1304 FILLER_0_32_3
*1305 FILLER_0_32_301
*1306 FILLER_0_32_307
*1307 FILLER_0_32_309
*1308 FILLER_0_32_321
*1309 FILLER_0_32_333
*1310 FILLER_0_32_345
*1311 FILLER_0_32_357
*1312 FILLER_0_32_363
*1313 FILLER_0_32_365
*1314 FILLER_0_32_377
*1315 FILLER_0_32_389
*1316 FILLER_0_32_401
*1317 FILLER_0_32_41
*1318 FILLER_0_32_53
*1319 FILLER_0_32_65
*1320 FILLER_0_32_77
*1321 FILLER_0_32_83
*1322 FILLER_0_32_85
*1323 FILLER_0_32_97
*1324 FILLER_0_33_105
*1325 FILLER_0_33_111
*1326 FILLER_0_33_113
*1327 FILLER_0_33_125
*1328 FILLER_0_33_137
*1329 FILLER_0_33_149
*1330 FILLER_0_33_15
*1331 FILLER_0_33_161
*1332 FILLER_0_33_167
*1333 FILLER_0_33_169
*1334 FILLER_0_33_181
*1335 FILLER_0_33_193
*1336 FILLER_0_33_205
*1337 FILLER_0_33_217
*1338 FILLER_0_33_223
*1339 FILLER_0_33_225
*1340 FILLER_0_33_237
*1341 FILLER_0_33_249
*1342 FILLER_0_33_261
*1343 FILLER_0_33_27
*1344 FILLER_0_33_273
*1345 FILLER_0_33_279
*1346 FILLER_0_33_281
*1347 FILLER_0_33_293
*1348 FILLER_0_33_3
*1349 FILLER_0_33_305
*1350 FILLER_0_33_317
*1351 FILLER_0_33_329
*1352 FILLER_0_33_335
*1353 FILLER_0_33_337
*1354 FILLER_0_33_349
*1355 FILLER_0_33_361
*1356 FILLER_0_33_373
*1357 FILLER_0_33_385
*1358 FILLER_0_33_39
*1359 FILLER_0_33_391
*1360 FILLER_0_33_393
*1361 FILLER_0_33_405
*1362 FILLER_0_33_51
*1363 FILLER_0_33_55
*1364 FILLER_0_33_57
*1365 FILLER_0_33_69
*1366 FILLER_0_33_81
*1367 FILLER_0_33_93
*1368 FILLER_0_34_109
*1369 FILLER_0_34_121
*1370 FILLER_0_34_133
*1371 FILLER_0_34_139
*1372 FILLER_0_34_141
*1373 FILLER_0_34_15
*1374 FILLER_0_34_153
*1375 FILLER_0_34_165
*1376 FILLER_0_34_177
*1377 FILLER_0_34_189
*1378 FILLER_0_34_195
*1379 FILLER_0_34_197
*1380 FILLER_0_34_209
*1381 FILLER_0_34_221
*1382 FILLER_0_34_233
*1383 FILLER_0_34_245
*1384 FILLER_0_34_251
*1385 FILLER_0_34_253
*1386 FILLER_0_34_265
*1387 FILLER_0_34_27
*1388 FILLER_0_34_277
*1389 FILLER_0_34_289
*1390 FILLER_0_34_29
*1391 FILLER_0_34_3
*1392 FILLER_0_34_301
*1393 FILLER_0_34_307
*1394 FILLER_0_34_309
*1395 FILLER_0_34_321
*1396 FILLER_0_34_333
*1397 FILLER_0_34_345
*1398 FILLER_0_34_357
*1399 FILLER_0_34_363
*1400 FILLER_0_34_365
*1401 FILLER_0_34_377
*1402 FILLER_0_34_389
*1403 FILLER_0_34_401
*1404 FILLER_0_34_41
*1405 FILLER_0_34_53
*1406 FILLER_0_34_65
*1407 FILLER_0_34_77
*1408 FILLER_0_34_83
*1409 FILLER_0_34_85
*1410 FILLER_0_34_97
*1411 FILLER_0_35_105
*1412 FILLER_0_35_111
*1413 FILLER_0_35_113
*1414 FILLER_0_35_125
*1415 FILLER_0_35_137
*1416 FILLER_0_35_149
*1417 FILLER_0_35_15
*1418 FILLER_0_35_161
*1419 FILLER_0_35_167
*1420 FILLER_0_35_169
*1421 FILLER_0_35_181
*1422 FILLER_0_35_193
*1423 FILLER_0_35_205
*1424 FILLER_0_35_217
*1425 FILLER_0_35_223
*1426 FILLER_0_35_225
*1427 FILLER_0_35_237
*1428 FILLER_0_35_249
*1429 FILLER_0_35_261
*1430 FILLER_0_35_27
*1431 FILLER_0_35_273
*1432 FILLER_0_35_279
*1433 FILLER_0_35_281
*1434 FILLER_0_35_293
*1435 FILLER_0_35_3
*1436 FILLER_0_35_305
*1437 FILLER_0_35_317
*1438 FILLER_0_35_329
*1439 FILLER_0_35_335
*1440 FILLER_0_35_337
*1441 FILLER_0_35_349
*1442 FILLER_0_35_361
*1443 FILLER_0_35_373
*1444 FILLER_0_35_385
*1445 FILLER_0_35_39
*1446 FILLER_0_35_391
*1447 FILLER_0_35_393
*1448 FILLER_0_35_405
*1449 FILLER_0_35_51
*1450 FILLER_0_35_55
*1451 FILLER_0_35_57
*1452 FILLER_0_35_69
*1453 FILLER_0_35_81
*1454 FILLER_0_35_93
*1455 FILLER_0_36_109
*1456 FILLER_0_36_121
*1457 FILLER_0_36_133
*1458 FILLER_0_36_139
*1459 FILLER_0_36_141
*1460 FILLER_0_36_15
*1461 FILLER_0_36_153
*1462 FILLER_0_36_165
*1463 FILLER_0_36_177
*1464 FILLER_0_36_189
*1465 FILLER_0_36_195
*1466 FILLER_0_36_197
*1467 FILLER_0_36_209
*1468 FILLER_0_36_221
*1469 FILLER_0_36_233
*1470 FILLER_0_36_245